Version 4
SHEET 1 1292 680
WIRE -384 -240 -384 -288
WIRE -384 -144 -384 -160
WIRE -384 -128 -384 -144
WIRE 256 -64 0 -64
WIRE 432 -64 336 -64
WIRE 768 -48 720 -48
WIRE 1136 -48 848 -48
WIRE -384 0 -384 -48
WIRE 256 32 176 32
WIRE 912 48 832 48
WIRE 256 96 256 64
WIRE 256 112 256 96
WIRE -224 128 -400 128
WIRE -112 128 -224 128
WIRE 0 128 0 -64
WIRE 0 128 -32 128
WIRE 32 128 0 128
WIRE 176 128 176 32
WIRE 176 128 112 128
WIRE 224 128 176 128
WIRE 320 144 320 32
WIRE 320 144 288 144
WIRE 432 144 432 -64
WIRE 432 144 320 144
WIRE 464 144 432 144
WIRE 576 144 528 144
WIRE 720 144 720 -48
WIRE 720 144 656 144
WIRE 768 144 768 48
WIRE 768 144 720 144
WIRE 784 144 768 144
WIRE 224 160 144 160
WIRE 912 160 912 48
WIRE 912 160 848 160
WIRE 1008 160 912 160
WIRE 1136 160 1136 -48
WIRE 1136 160 1088 160
WIRE 1216 160 1136 160
WIRE 784 176 768 176
WIRE 0 208 0 128
WIRE 144 208 144 160
WIRE 256 208 256 176
WIRE -224 224 -224 208
WIRE 768 224 768 176
WIRE 256 256 256 208
WIRE 0 304 0 272
WIRE 144 384 144 288
FLAG -384 -144 0
FLAG -384 -288 VCC
FLAG -384 0 VEE
FLAG 256 96 VCC
FLAG 256 208 VEE
FLAG -448 208 0
FLAG -224 224 0
FLAG 0 304 0
FLAG 144 384 0
FLAG 1216 240 0
FLAG 768 224 0
FLAG 816 128 VCC
FLAG 816 192 VEE
SYMBOL Opamps\\opamp2 256 80 R0
SYMATTR InstName U1
SYMATTR Value NE5532TI_SN
SYMBOL voltage -384 -256 R0
WINDOW 123 0 0 Left 0
WINDOW 39 0 0 Left 0
SYMATTR InstName V2
SYMATTR Value 12
SYMBOL voltage -384 -144 R0
WINDOW 123 0 0 Left 0
WINDOW 39 0 0 Left 0
SYMATTR InstName V3
SYMATTR Value 12
SYMBOL res 128 112 R90
WINDOW 0 0 56 VBottom 2
WINDOW 3 32 56 VTop 2
SYMATTR InstName R1
SYMATTR Value 2.2k
SYMBOL res 352 -80 R90
WINDOW 0 0 56 VBottom 2
WINDOW 3 32 56 VTop 2
SYMATTR InstName R2
SYMATTR Value 4.7k
SYMBOL voltage -448 112 R0
WINDOW 3 24 152 Left 2
WINDOW 123 23 139 Left 2
WINDOW 39 0 0 Left 0
SYMATTR Value ""
SYMATTR Value2 AC 1
SYMATTR InstName Vsweep
SYMBOL cap 320 16 R90
WINDOW 0 0 32 VBottom 2
WINDOW 3 32 32 VTop 2
SYMATTR InstName C1
SYMATTR Value 1n
SYMBOL voltage -224 112 R0
WINDOW 3 5 149 Left 2
WINDOW 123 3 129 Left 2
WINDOW 39 0 0 Left 0
SYMATTR Value SINE(2.5 2.5 5k)
SYMATTR Value2 AC 0
SYMATTR InstName V1
SYMBOL res -16 112 R90
WINDOW 0 0 56 VBottom 2
WINDOW 3 32 56 VTop 2
SYMATTR InstName R3
SYMATTR Value 2.4k
SYMBOL cap 16 272 R180
WINDOW 0 24 56 Left 2
WINDOW 3 24 8 Left 2
SYMATTR InstName C2
SYMATTR Value 6.2n
SYMBOL cap 528 128 R90
WINDOW 0 0 32 VBottom 2
WINDOW 3 32 32 VTop 2
SYMATTR InstName C3
SYMATTR Value 10µ
SYMBOL voltage 144 192 R0
WINDOW 3 5 149 Left 2
WINDOW 123 3 129 Left 2
WINDOW 39 0 0 Left 0
SYMATTR Value 2.5
SYMATTR Value2 AC 0
SYMATTR InstName V4
SYMBOL Opamps\\opamp2 816 96 R0
SYMATTR InstName U2
SYMATTR Value NE5532TI_SN
SYMBOL res 672 128 R90
WINDOW 0 0 56 VBottom 2
WINDOW 3 32 56 VTop 2
SYMATTR InstName R4
SYMATTR Value 50k
SYMBOL cap 832 32 R90
WINDOW 0 0 32 VBottom 2
WINDOW 3 32 32 VTop 2
SYMATTR InstName C4
SYMATTR Value 47p
SYMBOL res 864 -64 R90
WINDOW 0 0 56 VBottom 2
WINDOW 3 32 56 VTop 2
SYMATTR InstName R5
SYMATTR Value 100k
SYMBOL res 1104 144 R90
WINDOW 0 0 56 VBottom 2
WINDOW 3 32 56 VTop 2
SYMATTR InstName R6
SYMATTR Value 1k
SYMBOL res 1200 144 R0
SYMATTR InstName R7
SYMATTR Value 100k
TEXT 272 -296 Left 2 !.inc NE5532_SN.mod
TEXT -1464 248 Left 2 !.tran 0 1m 0 10n
TEXT -1464 216 Left 2 !;ac dec 10000 10 1G
TEXT -1456 168 Left 2 !.four 5000 10 100 V(n002)
TEXT -1440 40 Left 2 !.options numdgt = 7
TEXT -1440 64 Left 2 !.options plotwinsize = 0
