Version 4
SHEET 1 880 680
WIRE -384 -240 -384 -288
WIRE -384 -144 -384 -160
WIRE -384 -128 -384 -144
WIRE 256 -64 176 -64
WIRE 432 -64 336 -64
WIRE -384 0 -384 -48
WIRE 176 32 176 -64
WIRE 256 32 176 32
WIRE 256 96 256 64
WIRE 256 112 256 96
WIRE 32 128 -400 128
WIRE 176 128 176 32
WIRE 176 128 112 128
WIRE 224 128 176 128
WIRE 320 144 320 32
WIRE 320 144 288 144
WIRE 336 144 320 144
WIRE 432 144 432 -64
WIRE 432 144 416 144
WIRE 576 144 432 144
WIRE 224 160 144 160
WIRE 144 208 144 160
WIRE 256 208 256 176
WIRE 640 224 576 224
WIRE 576 240 576 224
WIRE 256 256 256 208
FLAG -384 -144 0
FLAG -384 -288 VCC
FLAG -384 0 VEE
FLAG 256 96 VCC
FLAG 256 208 VEE
FLAG 144 208 0
FLAG -400 208 0
FLAG -224 224 0
FLAG 576 240 0
SYMBOL Opamps\\opamp2 256 80 R0
SYMATTR InstName U1
SYMATTR Value TL072
SYMBOL voltage -384 -256 R0
WINDOW 123 0 0 Left 0
WINDOW 39 0 0 Left 0
SYMATTR InstName V2
SYMATTR Value 12
SYMBOL voltage -384 -144 R0
WINDOW 123 0 0 Left 0
WINDOW 39 0 0 Left 0
SYMATTR InstName V3
SYMATTR Value 12
SYMBOL res 128 112 R90
WINDOW 0 0 56 VBottom 2
WINDOW 3 32 56 VTop 2
SYMATTR InstName R1
SYMATTR Value 24.9k
SYMBOL res 352 -80 R90
WINDOW 0 0 56 VBottom 2
WINDOW 3 32 56 VTop 2
SYMATTR InstName R2
SYMATTR Value 100k
SYMBOL voltage -400 112 R0
WINDOW 3 24 152 Left 2
WINDOW 123 24 180 Left 2
WINDOW 39 0 0 Left 0
SYMATTR InstName Vsweep
SYMATTR Value ""
SYMATTR Value2 AC 1
SYMBOL cap 320 16 R90
WINDOW 0 0 32 VBottom 2
WINDOW 3 32 32 VTop 2
SYMATTR InstName C1
SYMATTR Value 47p
SYMBOL res 432 128 R90
WINDOW 0 0 56 VBottom 2
WINDOW 3 32 56 VTop 2
SYMATTR InstName R3
SYMATTR Value 1k
SYMBOL voltage -224 128 R0
WINDOW 3 24 208 Left 2
WINDOW 123 24 180 Left 2
WINDOW 39 0 0 Left 0
SYMATTR InstName V1
SYMATTR Value SINE(0 2.5 5k)
SYMATTR Value2 AC 0
SYMBOL res 592 240 R180
WINDOW 0 36 76 Left 2
WINDOW 3 36 40 Left 2
SYMATTR InstName R4
SYMATTR Value 100k
TEXT 272 -296 Left 2 !.inc TL072.mod
TEXT -1466 248 Left 2 !;.tran 0 10m 0 100n
TEXT -1464 216 Left 2 !.ac dec 10000 10 1G
TEXT -1456 168 Left 2 !.four 5000 10 100 V(n002)
TEXT -1440 40 Left 2 !.options numdgt = 7
TEXT -1440 64 Left 2 !.options plotwinsize = 0
